CRYSTAL
PRIMVEC
4.1011654837 0.0000000000 0.0000000000
0.0000000000 12.6720252899 -0.2849921621
0.0000000000 0.7875224916 14.4392427810
PRIMCOORD
26 1
K 0.2500000000 0.5617033442 0.8166979050
K 0.7500000000 0.4382966558 0.1833020950
K 0.7500000000 0.8286150355 0.6208776755
K 0.2500000000 0.1713849645 0.3791223245
Bi 0.2500000000 0.9371823220 0.8732246685
Bi 0.7500000000 0.0628176780 0.1267753315
Bi 0.2500000000 0.8391574903 0.2827529897
Bi 0.7500000000 0.1608425097 0.7172470103
Bi 0.7500000000 0.7294647455 0.0478321500
Bi 0.2500000000 0.2705352545 0.9521678500
Bi 0.7500000000 0.6072978785 0.4305702183
Bi 0.2500000000 0.3927021215 0.5694297817
S 0.2500000000 0.4574549139 0.3862647496
S 0.7500000000 0.5425450861 0.6137352504
S 0.2500000000 0.5951605864 0.0365330774
S 0.7500000000 0.4048394136 0.9634669226
S 0.7500000000 0.9981556889 0.3059797120
S 0.2500000000 0.0018443111 0.6940202880
S 0.7500000000 0.7853579568 0.8512093147
S 0.2500000000 0.2146420432 0.1487906853
S 0.2500000000 0.7588240154 0.4615527856
S 0.7500000000 0.2411759846 0.5384472144
S 0.7500000000 0.6964230799 0.2413128505
S 0.2500000000 0.3035769201 0.7586871495
S 0.2500000000 0.9080346908 0.0861715269
S 0.7500000000 0.0919653092 0.9138284731
