CRYSTAL
PRIMVEC
6.3106089300 0.0000000000 0.0000000000
0.0000000000 6.6090962213 0.0000000000
0.0000000000 0.0000000000 7.9394129490
PRIMCOORD
16 1
Li 0.5667868527 0.5846646936 0.1234158507
Li 0.0667868527 0.4153353064 0.8765841493
Li 0.0667868527 0.9153353064 0.6234158507
Li 0.5667868527 0.0846646936 0.3765841493
Ga 0.0646657055 0.9271386169 0.1256685289
Ga 0.5646657055 0.0728613831 0.8743314711
Ga 0.5646657055 0.5728613831 0.6256685289
Ga 0.0646657055 0.4271386169 0.3743314711
S 0.1790695947 0.0937684567 0.3652803161
S 0.6790695947 0.9062315433 0.6347196839
S 0.6790695947 0.4062315433 0.8652803161
S 0.1790695947 0.5937684567 0.1347196839
S 0.6966778470 0.9310593237 0.1181013379
S 0.1966778470 0.0689406763 0.8818986621
S 0.1966778470 0.5689406763 0.6181013379
S 0.6966778470 0.4310593237 0.3818986621
