CRYSTAL
PRIMVEC
6.3579981065 0.7764150437 -0.9479799365
-0.8491836356 6.3244497368 -0.5190847052
0.1496891240 1.0222162008 11.9193119421
PRIMCOORD
16 1
K 0.5154326473 0.7364051035 0.8801772192
K 0.4845673527 0.2635948965 0.1198227808
K 0.9858681147 0.7357066987 0.6208087180
K 0.0141318853 0.2642933013 0.3791912820
Sb 0.0372492519 0.7985756261 0.1227281767
Sb 0.9627507481 0.2014243739 0.8772718233
Sb 0.4589185824 0.7960112206 0.3797813161
Sb 0.5410814176 0.2039887794 0.6202186839
S 0.5162970064 0.1762598039 0.3851589705
S 0.4837029936 0.8237401961 0.6148410295
S 0.9834545102 0.1792470405 0.1145131450
S 0.0165454898 0.8207529595 0.8854868550
S 0.9235429267 0.2273474497 0.6431122081
S 0.0764570733 0.7726525503 0.3568877919
S 0.5805523915 0.2281400857 0.8545044322
S 0.4194476085 0.7718599143 0.1454955678
