CRYSTAL
PRIMVEC
-7.1059435752 -0.0848570369 -0.0378788505
2.1695269323 8.9805902295 -0.5774537757
-0.4259624986 -1.2872218641 -11.2140624641
PRIMCOORD
26 1
Li 0.3476789011 0.3288451601 0.1314940387
Li 0.3573334008 0.8347007459 0.6407506675
Li 0.6426665992 0.1652992541 0.3592493325
Li 0.6523210989 0.6711548399 0.8685059613
Sb 0.0308872063 0.9565248315 0.3317880066
Sb 0.1115011017 0.4559773146 0.8100638841
Sb 0.7624180587 0.1289725106 0.0466056150
Sb 0.5209057897 0.2479511759 0.7547139972
Sb 0.2375819413 0.8710274894 0.9533943850
Sb 0.9691127937 0.0434751685 0.6682119934
Sb 0.8884988983 0.5440226854 0.1899361159
Sb 0.4790942103 0.7520488241 0.2452860028
Se 0.8437203019 0.8376986458 0.1198739650
Se 0.6864013909 0.3832349396 0.9596269321
Se 0.4533888807 0.5105103946 0.6923508893
Se 0.2925687026 0.0649149164 0.5397041244
Se 0.0950116608 0.6874112817 0.3762173529
Se 0.3135986091 0.6167650604 0.0403730679
Se 0.4264962570 0.0647804392 0.1726474608
Se 0.9049883392 0.3125887183 0.6237826471
Se 0.5735037430 0.9352195608 0.8273525392
Se 0.9704720095 0.2745883585 0.2364242614
Se 0.0295279905 0.7254116415 0.7635757386
Se 0.7074312974 0.9350850836 0.4602958756
Se 0.5466111193 0.4894896054 0.3076491107
Se 0.1562796981 0.1623013542 0.8801260350
