CRYSTAL
PRIMVEC
5.5674982555 0.7089368487 -0.4953031423
-0.7471909656 5.5718640330 -0.4527695420
0.8916938702 1.1060183358 11.6302802415
PRIMCOORD
16 1
Li 0.5026186383 0.7494180365 0.8777925709
Li 0.4973813617 0.2505819635 0.1222074291
Li 0.9965974049 0.7504918864 0.6228473546
Li 0.0034025951 0.2495081136 0.3771526454
Sb 0.0019114980 0.7524163396 0.1234107606
Sb 0.9980885020 0.2475836604 0.8765892394
Sb 0.5020193144 0.7477700989 0.3764983076
Sb 0.4979806856 0.2522299011 0.6235016924
Se 0.5004706344 0.2500022526 0.3765893344
Se 0.4995293656 0.7499977474 0.6234106656
Se 0.9994883694 0.2502333621 0.1234222438
Se 0.0005116306 0.7497666379 0.8765777562
Se -0.0003642962 0.2497350148 0.6255317508
Se 0.0003642962 0.7502649852 0.3744682492
Se 0.4998718728 0.2499645397 0.8747528405
Se 0.5001281272 0.7500354603 0.1252471595
