CRYSTAL
PRIMVEC
-6.9531405238 0.0198440577 -0.1694489285
1.9870244205 8.6565829716 -0.5170245159
-0.6130283563 -1.2280871657 -10.7240251311
PRIMCOORD
26 1
Li 0.3572090796 0.3319403344 0.1242035534
Li 0.3695911334 0.8345183069 0.6399063360
Li 0.6304088666 0.1654816931 0.3600936640
Li 0.6427909204 0.6680596656 0.8757964466
Sb 0.0288439566 0.9468135477 0.3351669133
Sb 0.1230053389 0.4633956871 0.8091956840
Sb 0.7634424660 0.1227436613 0.0453742460
Sb 0.5295110900 0.2485507049 0.7533030186
Sb 0.2365575340 0.8772563387 0.9546257540
Sb 0.9711560434 0.0531864523 0.6648330867
Sb 0.8769946611 0.5366043129 0.1908043160
Sb 0.4704889100 0.7514492951 0.2466969814
S 0.8148392781 0.8333372859 0.1315841577
S 0.6795581527 0.3715943347 0.9511712241
S 0.4630859755 0.5096374919 0.7000838714
S 0.2726879816 0.0423144950 0.5297440352
S 0.0532338138 0.6732343117 0.3745587297
S 0.3204418473 0.6284056653 0.0488287759
S 0.4424610680 0.0759356848 0.1697985755
S 0.9467661862 0.3267656883 0.6254412703
S 0.5575389320 0.9240643152 0.8302014245
S 0.9505722240 0.2707957694 0.2298810899
S 0.0494277760 0.7292042306 0.7701189101
S 0.7273120184 0.9576855050 0.4702559648
S 0.5369140245 0.4903625081 0.2999161286
S 0.1851607219 0.1666627141 0.8684158423
