CRYSTAL
PRIMVEC
6.6219795852 0.0590115237 0.1032446888
-1.6140360359 6.5675632836 0.0191199833
-2.2328349709 -2.7030251307 12.2041240252
PRIMCOORD
16 1
K 0.5661123813 0.3135089885 0.1551811200
K 0.9154878851 0.7325219138 0.5884407493
K 0.4338876187 0.6864910115 0.8448188800
K 0.0845121149 0.2674780862 0.4115592507
Sb 0.4181087441 0.8127110597 0.3492219589
Sb 0.0123679294 0.2115665480 0.9106778719
Sb 0.9876320706 0.7884334520 0.0893221281
Sb 0.5818912559 0.1872889403 0.6507780411
Se 0.0094044471 0.7546506291 0.3237340199
Se 0.9905955529 0.2453493709 0.6762659801
Se 0.6129702024 0.2148958851 0.8786748721
Se 0.5644910448 0.2119187907 0.4084483410
Se 0.3870297976 0.7851041149 0.1213251279
Se 0.4355089552 0.7880812093 0.5915516590
Se 0.0319788411 0.1857329810 0.1351969581
Se 0.9680211589 0.8142670190 0.8648030419
