CRYSTAL
PRIMVEC
4.0530903393 0.0000000000 0.0000000000
0.0000000000 13.3843834644 -0.6587816781
0.0000000000 0.3058078100 12.9762666268
PRIMCOORD
26 1
Na 0.2500000000 0.5640975443 0.7799600977
Na 0.7500000000 0.4359024557 0.2200399023
Na 0.7500000000 0.8700705732 0.6047805569
Na 0.2500000000 0.1299294268 0.3952194431
Bi 0.2500000000 0.9501617275 0.8587664654
Bi 0.7500000000 0.0498382725 0.1412335346
Bi 0.2500000000 0.8339408479 0.2971764611
Bi 0.7500000000 0.1660591521 0.7028235389
Bi 0.7500000000 0.7328959181 0.0196213212
Bi 0.2500000000 0.2671040819 0.9803786788
Bi 0.7500000000 0.6161990675 0.4422217988
Bi 0.2500000000 0.3838009325 0.5577782012
S 0.2500000000 0.4801680002 0.3700231560
S 0.7500000000 0.5198319998 0.6299768440
S 0.2500000000 0.6080879996 -0.0145638958
S 0.7500000000 0.3919120004 0.0145638958
S 0.7500000000 -0.0134823426 0.3383989559
S 0.2500000000 0.0134823426 0.6616010441
S 0.7500000000 0.8100263600 0.8190030562
S 0.2500000000 0.1899736400 0.1809969438
S 0.2500000000 0.7578478754 0.4951213079
S 0.7500000000 0.2421521246 0.5048786921
S 0.7500000000 0.6992925508 0.2412504349
S 0.2500000000 0.3007074492 0.7587495651
S 0.2500000000 0.9007085191 0.0846502262
S 0.7500000000 0.0992914809 0.9153497738
