CRYSTAL
PRIMVEC
0.0062811387 -3.7214984030 0.0010384547
-10.1860561790 -1.8436016555 0.0341645827
-3.1222902900 -1.8524981234 -10.7641016635
PRIMCOORD
18 1
K 0.7470542109 0.3264610962 0.1785914546
K 0.2528607249 0.6735214642 0.8213998208
Sc 0.4999157867 -0.0000249696 0.0000186576
Sc 0.4999644279 0.5000086955 0.4999982793
Sc 0.8341361135 0.9390121823 0.3928738059
Sc 0.1660709229 0.0610556552 0.6071271317
Sc 0.0290417416 0.7210029403 0.2168450615
Sc 0.9708704429 0.2789851376 0.7831727813
S 0.9295058581 0.9885078715 0.1557899622
S 0.0704335164 0.0114750546 0.8442023382
S 0.6015646191 0.7272578661 0.0622346398
S 0.3983819333 0.2726819597 0.9377493143
S 0.4286107712 0.7565369233 0.3810692671
S 0.5713913141 0.2434695843 0.6189495361
S 0.2577336937 0.1092997009 0.3769130485
S 0.7425101335 0.8907624226 0.6230543567
S 0.0872416434 0.4782218183 0.3456759555
S 0.9127141458 0.5217625968 0.6543345991
