CRYSTAL
PRIMVEC
6.6234141106 -0.2910236843 -4.0962379169
-2.0839329533 6.0218176580 -3.6343065320
-0.2922919651 0.1696710296 7.8605844250
PRIMCOORD
16 1
Li -0.0278203924 0.4191121509 0.1234961791
Li 0.1805872876 -0.1413422631 0.7064797241
Li 0.0000000000 0.0000000000 -0.0000000000
Li 0.2963683543 0.0277988004 0.4407163907
Li 0.5820839941 0.6958416753 0.7230986813
Li 0.4179160059 0.3041583247 0.2769013187
Li 0.7036316457 -0.0277988004 0.5592836093
Li 0.8194127124 0.1413422631 0.2935202759
Li 0.0278203924 0.5808878491 0.8765038209
Sb 0.5000000000 0.5000000000 -0.0000000000
Se 0.2359302878 0.3885018229 0.4917984328
Se 0.1033931341 0.2427017858 -0.1410873826
Se 0.3999955325 0.9059807384 0.1472163500
Se 0.7640697122 0.6114981771 0.5082015672
Se 0.6000044675 0.0940192616 -0.1472163500
Se 0.8966068659 0.7572982142 0.1410873826
