CRYSTAL
PRIMVEC
4.2471932838 0.0000000000 0.0000000000
0.0000000000 13.1110789221 -0.1101104083
0.0000000000 0.6158591595 15.0897980480
PRIMCOORD
26 1
K 0.2500000000 0.5609110539 0.8151716790
K 0.7500000000 0.4390889461 0.1848283210
K 0.7500000000 0.8254493171 0.6239128787
K 0.2500000000 0.1745506829 0.3760871213
Bi 0.2500000000 0.8367269207 0.2817348726
Bi 0.7500000000 0.1632730793 0.7182651274
Bi 0.7500000000 0.6076146497 0.4309147864
Bi 0.2500000000 0.3923853503 0.5690852136
Bi 0.7500000000 0.7293238676 0.0460144623
Bi 0.2500000000 0.2706761324 0.9539855377
Bi 0.2500000000 0.9398873240 0.8733346390
Bi 0.7500000000 0.0601126760 0.1266653610
Se 0.2500000000 0.5905147380 0.0330494736
Se 0.7500000000 0.4094852620 0.9669505264
Se 0.7500000000 0.9987196053 0.3068357114
Se 0.2500000000 0.0012803947 0.6931642886
Se 0.7500000000 0.6913657250 0.2417750368
Se 0.2500000000 0.3086342750 0.7582249632
Se 0.7500000000 0.7844499925 0.8534923625
Se 0.2500000000 0.2155500075 0.1465076375
Se 0.2500000000 0.9054023666 0.0854883159
Se 0.7500000000 0.0945976334 0.9145116841
Se 0.2500000000 0.7618115085 0.4627686694
Se 0.7500000000 0.2381884915 0.5372313306
Se 0.2500000000 0.4547860955 0.3846173652
Se 0.7500000000 0.5452139045 0.6153826348
