CRYSTAL
PRIMVEC
4.2528123971 5.1733236922 0.2633655911
-4.2528123971 5.1733236922 0.2633655911
0.0000000000 2.1541126097 15.4047964389
PRIMCOORD
26 1
Ag 0.0825844640 0.5775300779 0.2101553582
Ag 0.4224699221 0.9174155360 0.2898446418
Ag 0.9174155360 0.4224699221 0.7898446418
Ag 0.5775300779 0.0825844640 0.7101553582
Sb 0.6538935450 0.6903164095 0.0226631384
Sb 0.6903164095 0.6538935450 0.5226631384
Sb 0.3461064550 0.3096835905 0.9773368616
Sb 0.3096835905 0.3461064550 0.4773368616
Sb 0.1211258404 0.9019845698 0.6056051414
Sb 0.0980154302 0.8788741596 0.8943948586
Sb 0.8788741596 0.0980154302 0.3943948586
Sb 0.9019845698 0.1211258404 0.1056051414
S 0.5362902549 0.2238171072 0.3433696812
S 0.5749781542 0.9857443101 0.1319510009
S 0.4637097451 0.7761828928 0.6566303188
S 0.2238171072 0.5362902549 0.8433696812
S 0.9635985414 0.0364014586 0.7500000000
S 0.0364014586 0.9635985414 0.2500000000
S 0.9857443101 0.5749781542 0.6319510009
S 0.4250218458 0.0142556899 0.8680489991
S 0.0142556899 0.4250218458 0.3680489991
S 0.3425810842 0.7108549270 0.4380658250
S 0.7108549270 0.3425810842 0.9380658250
S 0.6574189158 0.2891450730 0.5619341750
S 0.7761828928 0.4637097451 0.1566303188
S 0.2891450730 0.6574189158 0.0619341750
