CRYSTAL
PRIMVEC
7.6465892000 0.6817025422 -0.1781469007
4.4096179947 7.9370075169 -1.2178770718
3.6937564344 1.4829484502 5.5685826451
PRIMCOORD
16 1
Al 0.4690799374 0.4193025263 0.5278682027
Li 0.5874044340 0.9947861471 0.4100665291
Li 0.9582516529 0.4984445077 0.0493424676
Li 0.9785263773 0.8777593567 0.6387487444
Li 0.0092240673 0.4509859965 0.4625208444
Li 0.9748865535 0.7788719668 0.0985707933
Li 0.2217477681 0.8584646764 0.1787473070
Li 0.2244067933 0.1559645104 0.9700565799
Li 0.2997865278 0.8671652424 0.7238616215
Li 0.6171048040 0.4023465723 0.9720081249
S 0.4048038522 0.2572268724 0.2152445197
S 0.5643611354 0.5864526004 0.1708123060
S 0.6072236881 0.1079878510 0.6575056137
S 0.5911088162 0.5534596334 0.6442107675
S 0.0454970349 0.5889817424 0.6597726977
S 0.0030865574 0.2137017978 0.7629618804
