CRYSTAL
PRIMVEC
4.0964220873 0.0000000000 0.0000000000
0.0000000000 16.4143251947 0.0000000000
0.0000000000 0.0000000000 16.8704748023
PRIMCOORD
44 1
Li 0.2500000000 0.1588794724 0.9128791586
Li 0.2500000000 0.6588794724 0.5871208414
Li 0.7500000000 0.8411205276 0.0871208414
Li 0.2500000000 0.4858640569 0.9273501929
Li 0.7500000000 0.5141359431 0.0726498071
Li 0.2500000000 0.9858640569 0.5726498071
Li 0.7500000000 0.0141359431 0.4273501929
Li 0.2500000000 0.1931961550 0.2297807415
Li 0.7500000000 0.8068038450 0.7702192585
Li 0.2500000000 0.6931961550 0.2702192585
Li 0.7500000000 0.3068038450 0.7297807415
Li 0.2500000000 0.1830752308 0.6014156709
Li 0.7500000000 0.8169247692 0.3985843291
Li 0.2500000000 0.6830752308 0.8985843291
Li 0.7500000000 0.3169247692 0.1014156709
Li 0.7500000000 0.3411205276 0.4128791586
Bi 0.7500000000 0.5647539093 0.7636811050
Bi 0.2500000000 0.4352460907 0.2363188950
Bi 0.2500000000 0.9352460907 0.2636811050
Bi 0.7500000000 0.0647539093 0.7363188950
Bi 0.2500000000 0.4257795648 0.5893858997
Bi 0.7500000000 0.5742204352 0.4106141003
Bi 0.2500000000 0.9257795648 0.9106141003
Bi 0.7500000000 0.0742204352 0.0893858997
Se 0.2500000000 0.4380456512 0.4159557071
Se 0.7500000000 0.5619543488 0.5840442929
Se 0.2500000000 0.9380456512 0.0840442929
Se 0.7500000000 0.0619543488 0.9159557071
Se 0.7500000000 0.5800837474 0.9290383837
Se 0.2500000000 0.9199162526 0.4290383837
Se 0.7500000000 0.0800837474 0.5709616163
Se 0.2500000000 0.1925626541 0.7588192550
Se 0.7500000000 0.8074373459 0.2411807450
Se 0.2500000000 0.6925626541 0.7411807450
Se 0.7500000000 0.3074373459 0.2588192550
Se 0.2500000000 0.4270139752 0.7660226355
Se 0.7500000000 0.5729860248 0.2339773645
Se 0.2500000000 0.9270139752 0.7339773645
Se 0.7500000000 0.0729860248 0.2660226355
Se 0.7500000000 0.3027485244 0.5716779509
Se 0.2500000000 0.6972514756 0.4283220491
Se 0.2500000000 0.4199162526 0.0709616163
Se 0.2500000000 0.1972514756 0.0716779509
Se 0.7500000000 0.8027485244 0.9283220491
