CRYSTAL
PRIMVEC
4.1453946513 0.0000000000 0.0000000000
0.0000000000 13.8751936343 -1.0078141439
0.0000000000 -0.1136378805 12.7368595016
PRIMCOORD
26 1
Li 0.2500000000 0.5698070798 0.7622548313
Li 0.7500000000 0.4301929202 0.2377451687
Li 0.7500000000 0.8864340432 0.5989226150
Li 0.2500000000 0.1135659568 0.4010773850
Bi 0.2500000000 0.9514985687 0.8482568322
Bi 0.7500000000 0.0485014313 0.1517431678
Bi 0.2500000000 0.8299916479 0.2994489085
Bi 0.7500000000 0.1700083521 0.7005510915
Bi 0.7500000000 0.7295918652 0.0001385987
Bi 0.2500000000 0.2704081348 0.9998614013
Bi 0.7500000000 0.6188147837 0.4472296001
Bi 0.2500000000 0.3811852163 0.5527703999
Se 0.2500000000 0.4764255315 0.3582443263
Se 0.7500000000 0.5235744685 0.6417556737
Se 0.2500000000 0.5972528305 -0.0401312081
Se 0.7500000000 0.4027471695 0.0401312081
Se 0.7500000000 -0.0125441992 0.3608584175
Se 0.2500000000 0.0125441992 0.6391415825
Se 0.7500000000 0.8099357556 0.7922554651
Se 0.2500000000 0.1900642444 0.2077445349
Se 0.2500000000 0.7610308187 0.5113352236
Se 0.7500000000 0.2389691813 0.4886647764
Se 0.7500000000 0.6932559395 0.2332023654
Se 0.2500000000 0.3067440605 0.7667976346
Se 0.2500000000 0.8972046110 0.0801000150
Se 0.7500000000 0.1027953890 0.9198999850
