CRYSTAL
PRIMVEC
6.8345375844 0.0000000000 0.0000000000
0.0000000000 6.9666087201 0.0000000000
0.0000000000 0.0000000000 9.2541590903
PRIMCOORD
16 1
Na 0.1114709440 0.9257466840 0.3796897627
Na 0.6114709440 0.0742533160 0.6203102373
Na 0.6114709440 0.5742533160 0.8796897627
Na 0.1114709440 0.4257466840 0.1203102373
Al 0.6207346668 0.5594089424 0.3742546039
Al 0.1207346668 0.4405910576 0.6257453961
Al 0.1207346668 0.9405910576 0.8742546039
Al 0.6207346668 0.0594089424 0.1257453961
Se 0.9725369091 0.5355644450 0.4012617188
Se 0.4725369091 0.4644355550 0.5987382812
Se 0.4725369091 0.9644355550 0.9012617188
Se 0.9725369091 0.0355644450 0.0987382812
Se 0.0302584901 0.6062312665 0.8444775771
Se 0.5302584901 0.3937687335 0.1555224229
Se 0.5302584901 0.8937687335 0.3444775771
Se 0.0302584901 0.1062312665 0.6555224229
