CRYSTAL
PRIMVEC
-7.3471906904 0.0050503430 -0.3010959555
2.0861875924 9.3963287601 -0.1064882202
-0.8399989974 -1.8250970516 -11.2788476392
PRIMCOORD
26 1
Na 0.3113442786 0.3436157014 0.1192474333
Na 0.4278839869 0.7572908130 0.5892843574
Na 0.5721160131 0.2427091870 0.4107156426
Na 0.6886557214 0.6563842986 0.8807525667
Sb 0.0213641982 0.9626909076 0.3324150011
Sb 0.1413571988 0.4473890838 0.8085469690
Sb 0.7490571312 0.1301759618 0.0501227906
Sb 0.5253174234 0.2066120474 0.7549075727
Sb 0.2509428688 0.8698240382 0.9498772094
Sb 0.9786358018 0.0373090924 0.6675849989
Sb 0.8586428012 0.5526109162 0.1914530310
Sb 0.4746825766 0.7933879526 0.2450924273
Se 0.8211791819 0.8489999204 0.1292112836
Se 0.6745584574 0.3547443024 0.9537655676
Se 0.4739589618 0.4579400482 0.6883351208
Se 0.2777537863 0.0197257338 0.5284512603
Se 0.0553379269 0.7026531590 0.3665568262
Se 0.3254415426 0.6452556976 0.0462344324
Se 0.4215087223 0.0779573652 0.1694619946
Se 0.9446620731 0.2973468410 0.6334431738
Se 0.5784912777 0.9220426348 0.8305380054
Se 0.9195232695 0.3026768749 0.2408081193
Se 0.0804767305 0.6973231251 0.7591918807
Se 0.7222462137 0.9802742662 0.4715487397
Se 0.5260410382 0.5420599518 0.3116648792
Se 0.1788208181 0.1510000796 0.8707887164
