CRYSTAL
PRIMVEC
-0.0013560253 -3.8969165310 -0.0002331115
-10.6786870462 -1.9522442504 0.0309447942
-3.2806322371 -1.9502943611 -11.3039060637
PRIMCOORD
18 1
K 0.7474091511 0.3288080168 0.1778092704
K 0.2524073657 0.6711228442 0.8224039415
Sc 0.4999387600 0.0000277755 0.0001001903
Sc 0.5000612060 0.4999119497 0.4999914541
Sc 0.8339589528 0.9435866431 0.3919921477
Sc 0.1661924246 0.0562883388 0.6081321804
Sc 0.0302855589 0.7256791895 0.2202341252
Sc 0.9696068595 0.2744552407 0.7797132510
Se 0.9270817215 0.9944578632 0.1551017610
Se 0.0728090730 0.0058158090 0.8449144260
Se 0.6085283351 0.7279316931 0.0641623507
Se 0.3916409323 0.2721583893 0.9358156451
Se 0.4311541313 0.7589173037 0.3852708735
Se 0.5691701206 0.2409035284 0.6146642759
Se 0.2549291638 0.1163543849 0.3762243356
Se 0.7444354305 0.8834603298 0.6237677049
Se 0.0874293275 0.4787377863 0.3455386153
Se 0.9129634859 0.5213809141 0.6541634612
