CRYSTAL
PRIMVEC
4.1953964315 0.0000000000 0.0000000000
0.0000000000 13.7236737881 -0.4713602524
0.0000000000 0.1645035413 13.6892764769
PRIMCOORD
26 1
Na 0.2500000000 0.5412562614 0.7924107550
Na 0.7500000000 0.4587437386 0.2075892450
Na 0.7500000000 0.8652277774 0.6089780422
Na 0.2500000000 0.1347722226 0.3910219578
Bi 0.2500000000 0.8322335759 0.2933340181
Bi 0.7500000000 0.1677664241 0.7066659819
Bi 0.7500000000 0.6138783701 0.4406007038
Bi 0.2500000000 0.3861216299 0.5593992962
Bi 0.7500000000 0.7323596329 0.0218050541
Bi 0.2500000000 0.2676403671 0.9781949459
Bi 0.2500000000 0.9482030891 0.8602243238
Bi 0.7500000000 0.0517969109 0.1397756762
Se 0.2500000000 0.5992880118 -0.0038359311
Se 0.7500000000 0.4007119882 0.0038359311
Se 0.7500000000 -0.0133464861 0.3356357834
Se 0.2500000000 0.0133464861 0.6643642166
Se 0.7500000000 0.6924962295 0.2392362357
Se 0.2500000000 0.3075037705 0.7607637643
Se 0.7500000000 0.8029965874 0.8214932143
Se 0.2500000000 0.1970034126 0.1785067857
Se 0.2500000000 0.9004146106 0.0830833356
Se 0.7500000000 0.0995853894 0.9169166644
Se 0.2500000000 0.7597866018 0.4905127396
Se 0.7500000000 0.2402133982 0.5094872604
Se 0.2500000000 0.4743861869 0.3687511826
Se 0.7500000000 0.5256138131 0.6312488174
