CRYSTAL
PRIMVEC
6.9009937370 0.0000000000 0.0000000000
0.0000000000 7.0061438265 0.0000000000
0.0000000000 0.0000000000 9.3537691446
PRIMCOORD
16 1
Na 0.1111777970 0.9232295194 0.3792395545
Na 0.6111777970 0.0767704806 0.6207604455
Na 0.6111777970 0.5767704806 0.8792395545
Na 0.1111777970 0.4232295194 0.1207604455
Ga 0.6207480128 0.5587552392 0.3741947741
Ga 0.1207480128 0.4412447608 0.6258052259
Ga 0.1207480128 0.9412447608 0.8741947741
Ga 0.6207480128 0.0587552392 0.1258052259
Se 0.9748746178 0.5362489207 0.3996189809
Se 0.4748746178 0.4637510793 0.6003810191
Se 0.4748746178 0.9637510793 0.8996189809
Se 0.9748746178 0.0362489207 0.1003810191
Se 0.0282005825 0.6037260540 0.8467792665
Se 0.5282005825 0.3962739460 0.1532207335
Se 0.5282005825 0.8962739460 0.3467792665
Se 0.0282005825 0.1037260540 0.6532207335
