CRYSTAL
PRIMVEC
-7.1671996093 0.0809919785 -0.3247658790
1.9442192336 9.0332059930 -0.1382336021
-0.8716641432 -1.6930886727 -10.7763419794
PRIMCOORD
26 1
Na 0.3118790277 0.3403160991 0.1200158290
Na 0.4212958892 0.7665135112 0.5917741481
Na 0.5787041108 0.2334864888 0.4082258519
Na 0.6881209723 0.6596839009 0.8799841710
Sb 0.0269469194 0.9483512522 0.3351093453
Sb 0.1378794219 0.4481365350 0.8146916559
Sb 0.7501499202 0.1312910050 0.0524488924
Sb 0.5229164279 0.2111820422 0.7602789992
Sb 0.2498500798 0.8687089950 0.9475511076
Sb 0.9730530806 0.0516487478 0.6648906547
Sb 0.8621205781 0.5518634650 0.1853083441
Sb 0.4770835721 0.7888179578 0.2397210008
S 0.8096523565 0.8458197459 0.1333002890
S 0.6678047655 0.3502030935 0.9535740481
S 0.4625757053 0.4596375514 0.6982304700
S 0.2588913590 0.0194836902 0.5227910562
S 0.0423497432 0.6869478983 0.3633331873
S 0.3321952345 0.6497969065 0.0464259519
S 0.4382141352 0.0816819843 0.1714744280
S 0.9576502568 0.3130521017 0.6366668127
S 0.5617858648 0.9183180157 0.8285255720
S 0.9159374487 0.3009107392 0.2334402420
S 0.0840625513 0.6990892608 0.7665597580
S 0.7411086410 0.9805163098 0.4772089438
S 0.5374242947 0.5403624486 0.3017695300
S 0.1903476435 0.1541802541 0.8666997110
