CRYSTAL
PRIMVEC
6.7738672667 0.1845699910 -3.4760674600
-1.9409798951 5.7772966078 -3.4907404878
-0.0594451639 -0.1418126263 7.0070086256
PRIMCOORD
16 1
Li 0.1405234803 0.4209080307 0.4414428661
Li 0.1518794534 0.0232561896 0.7303090710
Li 0.0000000000 0.0000000000 0.0000000000
Li 0.1410977479 0.7035044492 0.1194424635
Li 0.5369060442 0.8240880257 0.6680154246
Li 0.4630939558 0.1759119743 0.3319845754
Li 0.8589022521 0.2964955508 0.8805585365
Li 0.8481205466 -0.0232561896 0.2696909290
Li -0.1405234803 0.5790919693 0.5585571339
Bi 0.5000000000 0.5000000000 0.0000000000
S 0.2356872385 0.0998987810 0.4793018701
S 0.2477153964 0.3962166845 0.1546156998
S 0.2460248410 0.7628752514 -0.1366391900
S 0.7643127615 0.9001012190 0.5206981299
S 0.7539751590 0.2371247486 0.1366391900
S 0.7522846036 0.6037833155 0.8453843002
