CRYSTAL
PRIMVEC
3.9973580327 0.0000000000 0.0000000000
0.0000000000 13.3658084943 -0.9458095784
0.0000000000 -0.1078585658 12.3003435731
PRIMCOORD
26 1
Li 0.2500000000 0.5548004552 0.7587425012
Li 0.7500000000 0.4451995448 0.2412574988
Li 0.7500000000 0.8852421704 0.6014998782
Li 0.2500000000 0.1147578296 0.3985001218
Bi 0.2500000000 0.9520460715 0.8503920023
Bi 0.7500000000 0.0479539285 0.1496079977
Bi 0.2500000000 0.8308923569 0.2985185030
Bi 0.7500000000 0.1691076431 0.7014814970
Bi 0.7500000000 0.7272052945 -0.0029048028
Bi 0.2500000000 0.2727947055 0.0029048028
Bi 0.7500000000 0.6220984231 0.4508184197
Bi 0.2500000000 0.3779015769 0.5491815803
S 0.2500000000 0.4816822070 0.3614052487
S 0.7500000000 0.5183177930 0.6385947513
S 0.2500000000 0.6028012006 -0.0524323849
S 0.7500000000 0.3971987994 0.0524323849
S 0.7500000000 -0.0119758529 0.3550446998
S 0.2500000000 0.0119758529 0.6449553002
S 0.7500000000 0.8140631765 0.7957634310
S 0.2500000000 0.1859368235 0.2042365690
S 0.2500000000 0.7642944769 0.5094739731
S 0.7500000000 0.2357055231 0.4905260269
S 0.7500000000 0.6942107249 0.2358202676
S 0.2500000000 0.3057892751 0.7641797324
S 0.2500000000 0.8947313642 0.0805406803
S 0.7500000000 0.1052686358 0.9194593197
