CRYSTAL
PRIMVEC
-7.6006893765 0.0221710213 -0.2013878405
2.1337151190 9.3710381558 -0.0478591676
-0.7500618995 -1.9204588347 -11.3256136791
PRIMCOORD
26 1
K 0.2803208383 0.3352488280 0.1131390390
K 0.4211706687 0.7363059150 0.5649135607
K 0.5788293313 0.2636940850 0.4350864393
K 0.7196791617 0.6647511720 0.8868609610
Sb 0.0291343986 0.9483670223 0.3408206582
Sb 0.1562896836 0.4407906403 0.8138276516
Sb 0.7299200457 0.1332588294 0.0475266624
Sb 0.5052751071 0.1919844782 0.7679682478
Sb 0.2700799543 0.8667411706 0.9524733376
Sb 0.9708656014 0.0516329777 0.6591793418
Sb 0.8437103164 0.5592093597 0.1861723484
Sb 0.4947248929 0.8080155218 0.2320317522
S 0.8059887412 0.8666121115 0.1482349244
S 0.6509825488 0.3319271893 0.9523007233
S 0.4544056853 0.4374138330 0.7080269680
S 0.2347479623 0.0151329535 0.5284759441
S 0.0337562650 0.6915962319 0.3524375061
S 0.3490174512 0.6680728107 0.0476992767
S 0.4419448805 0.0682335131 0.1600611127
S 0.9662437350 0.3084037681 0.6475624939
S 0.5580551195 0.9317664869 0.8399388873
S 0.8787111388 0.3182335231 0.2253376761
S 0.1212888612 0.6817664769 0.7746623239
S 0.7652520377 0.9848670465 0.4715240559
S 0.5455943147 0.5625861670 0.2919730320
S 0.1940112588 0.1333878885 0.8517650756
