CRYSTAL
PRIMVEC
3.9412556844 -0.0000000000 0.0000000000
-0.0000000000 15.8216042158 0.0000000000
0.0000000000 0.0000000000 16.0050573802
PRIMCOORD
44 1
Li 0.2500000000 0.1588268711 0.9106811706
Li 0.2500000000 0.6588268711 0.5893188294
Li 0.7500000000 0.8411731289 0.0893188294
Li 0.2500000000 0.4876089316 0.9297243931
Li 0.7500000000 0.5123910684 0.0702756069
Li 0.2500000000 0.9876089316 0.5702756069
Li 0.7500000000 0.0123910684 0.4297243931
Li 0.2500000000 0.2016959376 0.2331380392
Li 0.7500000000 0.7983040624 0.7668619608
Li 0.2500000000 0.7016959376 0.2668619608
Li 0.7500000000 0.2983040624 0.7331380392
Li 0.2500000000 0.1849591310 0.5979182943
Li 0.7500000000 0.8150408690 0.4020817057
Li 0.2500000000 0.6849591310 0.9020817057
Li 0.7500000000 0.3150408690 0.0979182943
Li 0.7500000000 0.3411731289 0.4106811706
Bi 0.7500000000 0.5641570632 0.7666063575
Bi 0.2500000000 0.4358429368 0.2333936425
Bi 0.2500000000 0.9358429368 0.2666063575
Bi 0.7500000000 0.0641570632 0.7333936425
Bi 0.2500000000 0.4253713564 0.5900651366
Bi 0.7500000000 0.5746286436 0.4099348634
Bi 0.2500000000 0.9253713564 0.9099348634
Bi 0.7500000000 0.0746286436 0.0900651366
S 0.2500000000 0.4376655725 0.4159583993
S 0.7500000000 0.5623344275 0.5840416007
S 0.2500000000 0.9376655725 0.0840416007
S 0.7500000000 0.0623344275 0.9159583993
S 0.7500000000 0.5823524932 0.9319279367
S 0.2500000000 0.9176475068 0.4319279367
S 0.7500000000 0.0823524932 0.5680720633
S 0.2500000000 0.1924959394 0.7567468099
S 0.7500000000 0.8075040606 0.2432531901
S 0.2500000000 0.6924959394 0.7432531901
S 0.7500000000 0.3075040606 0.2567468099
S 0.2500000000 0.4308262144 0.7697813367
S 0.7500000000 0.5691737856 0.2302186633
S 0.2500000000 0.9308262144 0.7302186633
S 0.7500000000 0.0691737856 0.2697813367
S 0.7500000000 0.3054745136 0.5731818045
S 0.2500000000 0.6945254864 0.4268181955
S 0.2500000000 0.4176475068 0.0680720633
S 0.2500000000 0.1945254864 0.0731818045
S 0.7500000000 0.8054745136 0.9268181955
