CRYSTAL
PRIMVEC
6.9461458038 0.0000000000 0.0000000000
0.0000000000 7.3343817706 0.0000000000
0.0000000000 0.0000000000 8.5622921626
PRIMCOORD
16 1
Li 0.6195618404 0.5882461484 0.1223264475
Li 0.1195618404 0.9117538516 0.6223264475
Li 0.6195618404 0.0882461484 0.3776735525
Li 0.1195618404 0.4117538516 0.8776735525
In 0.6221081978 0.5780230341 0.6250021796
In 0.1221081978 0.4219769659 0.3749978204
In 0.1221081978 0.9219769659 0.1250021796
In 0.6221081978 0.0780230341 0.8749978204
Se 0.0028582008 0.0810027781 0.8673631994
Se 0.0028582008 0.5810027781 0.6326368006
Se 0.5028582008 0.9189972219 0.1326368006
Se 0.5028582008 0.4189972219 0.3673631994
Se 0.4916807610 0.9159828647 0.6212669641
Se 0.9916807610 0.0840171353 0.3787330359
Se 0.9916807610 0.5840171353 0.1212669641
Se 0.4916807610 0.4159828647 0.8787330359
