CRYSTAL
PRIMVEC
-7.8384376593 -0.0158864856 -0.3101900632
2.2462348222 9.8295172522 -0.0315252293
-0.9239950136 -2.0042860627 -11.8070221028
PRIMCOORD
26 1
K 0.2825988694 0.3347186069 0.1117902482
K 0.4308482698 0.7350850792 0.5657960676
K 0.5691517302 0.2649149208 0.4342039324
K 0.7174011306 0.6652813931 0.8882097518
Sb 0.0318529106 0.9435254763 0.3411603469
Sb 0.1560932589 0.4353537303 0.8159563839
Sb 0.7301187689 0.1350520649 0.0478373882
Sb 0.5092562625 0.1900385666 0.7699092220
Sb 0.2698812311 0.8649479351 0.9521626118
Sb 0.9681470894 0.0564745237 0.6588396531
Sb 0.8439067411 0.5646462697 0.1840436161
Sb 0.4907437375 0.8099614334 0.2300907780
Se 0.8148941462 0.8682878670 0.1427388284
Se 0.6615117471 0.3380632478 0.9522221241
Se 0.4648569415 0.4371972018 0.7055576221
Se 0.2420385371 0.0104402185 0.5256368670
Se 0.0324016957 0.6868777808 0.3562935613
Se 0.3384882529 0.6619367522 0.0477778759
Se 0.4292862363 0.0676245485 0.1631847108
Se 0.9675983043 0.3131222192 0.6437064387
Se 0.5707137637 0.9323754515 0.8368152892
Se 0.8790319085 0.3207100769 0.2254752264
Se 0.1209680915 0.6792899231 0.7745247736
Se 0.7579614629 0.9895597815 0.4743631330
Se 0.5351430585 0.5628027982 0.2944423779
Se 0.1851058538 0.1317121330 0.8572611716
