CRYSTAL
PRIMVEC
5.6651341010 0.7188032501 -0.5939032809
-0.7518938311 5.6469992723 -0.4658468651
0.6976304293 1.0497071323 11.4544797272
PRIMCOORD
16 1
Na 0.5092328350 0.7434186923 0.8760922354
Na 0.4907671650 0.2565813077 0.1239077646
Na 0.9904864082 0.7449117860 0.6246646483
Na 0.0095135918 0.2550882140 0.3753353517
Sb 0.0261816995 0.7791615578 0.1249965287
Sb 0.9738183005 0.2208384422 0.8750034713
Sb 0.4834399298 0.7770244048 0.3774999500
Sb 0.5165600702 0.2229755952 0.6225000500
S 0.5129421836 0.2177474048 0.3822746116
S 0.4870578164 0.7822525952 0.6177253884
S 0.9885586736 0.2182924569 0.1183741684
S 0.0114413264 0.7817075431 0.8816258316
S 0.9528161124 0.2451682881 0.6319862998
S 0.0471838876 0.7548317119 0.3680137002
S 0.5383629216 0.2435222727 0.8664034136
S 0.4616370784 0.7564777273 0.1335965864
