CRYSTAL
PRIMVEC
6.2661280416 0.0000000000 0.0000000000
0.0000000000 6.5578051043 0.0000000000
0.0000000000 0.0000000000 7.8571206935
PRIMCOORD
16 1
Li 0.1195629820 0.9133857169 0.6217123546
Li 0.6195629820 0.0866142831 0.3782876454
Li 0.6195629820 0.5866142831 0.1217123546
Li 0.1195629820 0.4133857169 0.8782876454
Al 0.6223603490 0.5735877314 0.6256310734
Al 0.1223603490 0.4264122686 0.3743689266
Al 0.1223603490 0.9264122686 0.1256310734
Al 0.6223603490 0.0735877314 0.8743689266
S 0.5100685300 0.9040240997 0.6382108402
S 0.0100685300 0.0959759003 0.3617891598
S 0.0100685300 0.5959759003 0.1382108402
S 0.5100685300 0.4040240997 0.8617891598
S 0.9860071290 0.0647423457 0.8851815438
S 0.4860081290 0.9352576543 0.1148184562
S 0.4860081290 0.4352576543 0.3851815438
S 0.9860071290 0.5647423457 0.6148184562
