CRYSTAL
PRIMVEC
5.3329889224 0.6769268931 -0.4639617093
-0.7193641677 5.3368623180 -0.4392313385
0.8549135189 1.0469274384 11.1165265048
PRIMCOORD
16 1
Li 0.5035326968 0.7502063084 0.8761478597
Li 0.4964673032 0.2497936916 0.1238521403
Li 0.9962366407 0.7499693605 0.6241954612
Li 0.0037633593 0.2500306395 0.3758045388
Sb 0.0005510840 0.7500107842 0.1237593197
Sb -0.0005510840 0.2499892158 0.8762406803
Sb 0.4997342596 0.7501620805 0.3762683877
Sb 0.5002657404 0.2498379195 0.6237316123
S 0.5029270350 0.2523707411 0.3767443059
S 0.4970729650 0.7476292589 0.6232556941
S 0.9977030152 0.2477382591 0.1233895948
S 0.0022969848 0.7522617409 0.8766104052
S 0.9969763864 0.2492071811 0.6270331866
S 0.0030236136 0.7507928189 0.3729668134
S 0.5027474332 0.2508532592 0.8729211633
S 0.4972525668 0.7491467408 0.1270788367
